data_POSCAR
  _audit_creation_date              2014-09-24
  _audit_creation_method            'ToBaCCo'
  _symmetry_space_group_name_H-M    'P1'
  _symmetry_Int_Tables_number       1
  _symmetry_cell_setting            triclinic
  loop_
  _symmetry_equiv_pos_as_xyz
 x,y,z
_cell_length_a 27.5896
_cell_length_b 27.5911
_cell_length_c 27.6066
_cell_angle_alpha 76.345200
_cell_angle_beta 103.631700
_cell_angle_gamma 76.691900
loop_
  _atom_site_label
  _atom_site_type_symbol
  _atom_site_fract_x
  _atom_site_fract_y
  _atom_site_fract_z
O1 O 0.57620 0.47587 0.04393
 O2 O 0.43909 0.49072 0.04082
 O3 O 0.51655 0.41475 0.04447
 O4 O 0.49873 0.55181 0.04121
 O5 O 0.47406 0.57669 -0.04538
 O6 O 0.49173 0.43936 -0.04212
 O7 O 0.41445 0.51553 -0.04575
 O8 O 0.55133 0.50052 -0.04265
 Cu9 Cu 0.51016 0.48086 0.05135
 Cu10 Cu 0.48046 0.51054 -0.05272
 C11 C 0.58682 0.48605 0.00104
 C12 C 0.40373 0.50508 -0.00298
 C13 C 0.50654 0.40399 0.00172
 C14 C 0.48379 0.58733 -0.00250
 O15 O -0.05562 0.59664 0.46449
 O16 O -0.05254 0.45925 0.47988
 O17 O -0.05325 0.51916 0.54060
 O18 O -0.05650 0.53724 0.40337
 O19 O 0.03001 0.51277 0.42806
 O20 O 0.03326 0.49485 0.56539
 O21 O 0.03396 0.43503 0.50468
 O22 O 0.03088 0.57205 0.48913
 Cu23 Cu -0.06321 0.53050 0.46963
 Cu24 Cu 0.04074 0.50123 0.49929
 C25 C -0.01274 0.60741 0.47469
 C26 C -0.00874 0.42403 0.49440
 C27 C -0.00955 0.50452 0.57607
 C28 C -0.01376 0.52756 0.39263
 O29 O 0.51014 0.02895 0.57282
 O30 O 0.49506 0.03199 0.43572
 O31 O 0.43370 0.03302 0.49490
 O32 O 0.57096 0.02953 0.51328
 O33 O 0.59541 -0.05699 0.53799
 O34 O 0.45771 -0.05349 0.51978
 O35 O 0.51917 -0.05451 0.46057
 O36 O 0.53444 -0.05755 0.59758
 Cu37 Cu 0.50004 0.03958 0.50169
 Cu38 Cu 0.52909 -0.06436 0.53145
 C39 C 0.52439 -0.01479 0.60827
 C40 C 0.50509 -0.01085 0.42510
 C41 C 0.42255 -0.00961 0.50476
 C42 C 0.60627 -0.01415 0.52820
 C43 C 0.50139 -0.02888 0.03077
 C44 C 0.50780 0.00858 -0.00712
 C45 C 0.51194 0.00091 -0.05769
 C46 C 0.51009 0.06000 -0.00075
 C47 C 0.50051 -0.02237 0.08256
 C48 C 0.49541 -0.07879 0.02278
 C49 C 0.55092 -0.04113 -0.05932
 C50 C 0.55537 -0.04624 -0.10750
 C51 C 0.52117 -0.00920 -0.15434
 C52 C 0.48240 0.03272 -0.15283
 C53 C 0.47791 0.03785 -0.10484
 C54 C 0.55247 0.07766 -0.00803
 C55 C 0.55387 0.12719 -0.00516
 C56 C 0.51277 0.15968 0.00472
 C57 C 0.47044 0.14228 0.01222
 C58 C 0.46898 0.09271 0.00932
 C59 C 0.45848 -0.02909 0.10109
 C60 C 0.45787 -0.02502 0.15046
 C61 C 0.49941 -0.01452 0.18206
 C62 C 0.54153 -0.00790 0.16393
 C63 C 0.54221 -0.01198 0.11450
 C64 C 0.45544 -0.07927 -0.01933
 C65 C 0.45026 -0.12681 -0.02580
 C66 C 0.48467 -0.17415 0.01001
 C67 C 0.52410 -0.17382 0.05231
 C68 C 0.52935 -0.12643 0.05877
 H69 H 0.57818 -0.06948 -0.02339
 H70 H 0.58565 -0.07873 -0.10821
 H71 H 0.45579 0.06164 -0.18879
 H72 H 0.44782 0.07069 -0.10443
 H73 H 0.58432 0.05314 -0.01624
 H74 H 0.58666 0.14038 -0.01126
 H75 H 0.43545 0.08022 0.01397
 H76 H 0.42615 -0.03749 0.07724
 H77 H 0.42521 -0.03048 0.16415
 H78 H 0.57408 -0.00016 0.18821
 H79 H 0.57550 -0.00775 0.10145
 H80 H 0.42825 -0.04291 -0.04693
 H81 H 0.41947 -0.12666 -0.05854
 H82 H 0.55086 -0.21023 0.08028
 H83 H 0.56017 -0.12686 0.09164
 H84 H 0.43825 0.16732 0.01950
 C85 C -0.02763 0.50197 0.96945
 C86 C 0.01029 0.50826 1.00695
 C87 C 0.06193 0.50970 1.00038
 C88 C 0.00271 0.51353 1.05714
 C89 C -0.07793 0.49711 0.97753
 C90 C -0.02132 0.50042 0.91784
 C91 C 0.09418 0.46811 0.99049
 C92 C 0.14395 0.46880 0.98750
 C93 C 0.16205 0.51085 0.99472
 C94 C 0.13001 0.55242 1.00439
 C95 C 0.08031 0.55179 1.00736
 C96 C 0.03919 0.47954 1.10455
 C97 C 0.03398 0.48494 1.15220
 C98 C -0.00755 0.52458 1.15306
 C99 C -0.04407 0.55880 1.10596
 C100 C -0.03886 0.55345 1.05811
 C101 C -0.12531 0.53105 0.94103
 C102 C -0.17302 0.52657 0.94727
 C103 C -0.17401 0.48790 0.98988
 C104 C -0.12693 0.45359 1.02630
 C105 C -0.07906 0.45801 1.02006
 C106 C -0.01072 0.54173 0.88557
 C107 C -0.00655 0.54041 0.83637
 C108 C -0.01334 0.49803 0.81883
 C109 C -0.02412 0.45690 0.85071
 C110 C -0.02825 0.45816 0.89989
 H111 H 0.08119 0.43479 0.98606
 H112 H 0.16859 0.43625 0.98035
 H113 H 0.14368 0.58502 1.01027
 H114 H 0.05619 0.58401 1.01542
 H115 H 0.07167 0.44876 1.10457
 H116 H 0.06246 0.45830 1.18842
 H117 H -0.06682 0.58067 1.02193
 H118 H -0.12530 0.56122 0.90783
 H119 H -0.20918 0.55325 0.91880
 H120 H -0.12723 0.42336 1.05929
 H121 H -0.04296 0.43079 1.04809
 H122 H -0.00631 0.57518 0.89824
 H123 H 0.00138 0.57264 0.81181
 H124 H -0.02972 0.42408 0.83739
 H125 H -0.03683 0.42615 0.92405
 H126 H -0.07625 0.58972 1.10622
 C127 C 0.02354 -0.01258 0.49605
 C128 C -0.01334 0.02465 0.50368
 C129 C -0.06269 0.01578 0.51066
 C130 C -0.00709 0.07660 0.50457
 C131 C 0.07527 -0.00642 0.49441
 C132 C 0.01477 -0.06244 0.49034
 C133 C -0.11090 0.05151 0.47776
 C134 C -0.15768 0.04413 0.48405
 C135 C -0.15684 0.00117 0.52353
 C136 C -0.10892 -0.03440 0.55690
 C137 C -0.06199 -0.02701 0.55067
 C138 C 0.00261 0.10898 0.46266
 C139 C 0.00470 0.15923 0.46248
 C140 C -0.00321 0.17774 0.50398
 C141 C -0.01255 0.14554 0.54595
 C142 C -0.01463 0.09536 0.54619
 C143 C 0.10797 0.00347 0.53593
 C144 C 0.15809 0.00542 0.53554
 C145 C 0.17610 -0.00282 0.49388
 C146 C 0.14359 -0.01235 0.45229
 C147 C 0.09351 -0.01429 0.45262
 C148 C 0.05112 -0.11032 0.52333
 C149 C 0.04411 -0.15754 0.51801
 C150 C 0.00086 -0.15755 0.47943
 C151 C -0.03541 -0.10998 0.44606
 C152 C -0.02840 -0.06259 0.45132
 H153 H -0.11224 0.08488 0.44692
 H154 H -0.19455 0.07192 0.45808
 H155 H -0.10785 -0.06765 0.58771
 H156 H -0.02517 -0.05446 0.57707
 H157 H 0.00741 0.09578 0.42963
 H158 H 0.01162 0.18393 0.42962
 H159 H -0.02256 0.07122 0.57867
 H160 H 0.09513 0.00850 0.56909
 H161 H 0.18309 0.01246 0.56811
 H162 H 0.15720 -0.01900 0.41998
 H163 H 0.06907 -0.02239 0.42047
 H164 H 0.08479 -0.11106 0.55344
 H165 H 0.07247 -0.19409 0.54398
 H166 H -0.06890 -0.10951 0.41591
 H167 H -0.05636 -0.02609 0.42484
 H168 H -0.01892 0.15947 0.57817
 C169 C -0.36030 0.48258 1.00170
 C170 C -0.31649 0.48137 1.00108
 C171 C -0.26596 0.48183 0.99888
 C172 C -0.22358 0.48377 0.99561
 C173 C 0.35366 0.50804 0.99590
 C174 C 0.30941 0.50958 0.99494
 C175 C 0.25787 0.51041 0.99413
 C176 C 0.21408 0.51067 0.99397
 C177 C -0.01322 -0.34262 0.47167
 C178 C -0.01233 -0.29892 0.47079
 C179 C -0.00956 -0.24868 0.47186
 C180 C -0.00568 -0.20664 0.47445
 C181 C -0.00738 0.37091 0.49805
 C182 C -0.00600 0.32642 0.50013
 C183 C -0.00443 0.27448 0.50178
 C184 C -0.00349 0.23030 0.50284
 C185 C 0.52741 -0.01572 -0.34169
 C186 C 0.52850 -0.01600 -0.29769
 C187 C 0.52782 -0.01528 -0.24688
 C188 C 0.52565 -0.01338 -0.20422
 C189 C 0.50176 -0.01007 0.37221
 C190 C 0.50024 -0.01003 0.32817
 C191 C 0.49950 -0.01075 0.27700
 C192 C 0.49937 -0.01206 0.23360
 C193 C 0.47944 -0.35974 -0.00315
 C194 C 0.47777 -0.31593 -0.00238
 C195 C 0.47802 -0.26554 0.00016
 C196 C 0.48008 -0.22336 0.00380
 C197 C 0.51046 0.35101 0.00299
 C198 C 0.51232 0.30673 0.00406
 C199 C 0.51321 0.25523 0.00502
 C200 C 0.51323 0.21151 0.00531
 C201 C -0.34084 -0.01471 0.53222
 C202 C -0.29721 -0.01357 0.53332
 C203 C -0.24720 -0.01035 0.53215
 C204 C -0.20545 -0.00598 0.52921
 C205 C 0.36932 -0.00807 0.50024
 C206 C 0.32473 -0.00646 0.49765
 C207 C 0.27275 -0.00460 0.49569
 C208 C 0.22856 -0.00340 0.49465
 C209 C -0.01481 0.53158 1.33967
 C210 C -0.01501 0.53292 1.29570
 C211 C -0.01411 0.53221 1.24503
 C212 C -0.01200 0.52972 1.20257
 C213 C -0.00870 0.50034 0.62904
 C214 C -0.00866 0.49837 0.67311
 C215 C -0.00942 0.49745 0.72422
 C216 C -0.01079 0.49745 0.76752
   
